Circuit: * C:\Users\gusta\Documents\LTspiceXVII\PSU_Schm.asc

Early termination of direct N-R iteration.
Direct Newton iteration failed to find .op point.  (Use ".option noopiter" to skip.)
Starting Gmin stepping
Gmin = 10
Gmin = 1.07374
Gmin = 0.115292
Gmin = 0.0123794
Gmin = 0.00132923
Gmin = 0.000142725
Gmin = 1.5325e-005
Gmin = 1.6455e-006
Gmin = 1.76685e-007
Gmin = 1.89714e-008
Gmin = 2.03704e-009
Gmin = 2.18725e-010
Gmin = 2.34854e-011
Gmin = 2.52173e-012
Gmin = 2.70769e-013
Gmin = 0
Gmin stepping succeeded in finding the operating point.


Date: Thu Apr 25 14:09:33 2019
Total elapsed time: 2.292 seconds.

tnom = 27
temp = 27
method = modified trap
totiter = 23335
traniter = 23036
tranpoints = 11041
accept = 10753
rejected = 288
matrix size = 93
fillins = 97
solver = Normal
Thread vector: 18.8/15.6[2] 6.3/5.7[2] 2.0/3.2[1] 1.0/4.0[1]  2592/500
Matrix Compiler1: 17.25 KB object code size  5.6/3.1/[1.7]
Matrix Compiler2: 11.00 KB object code size  2.4/3.5/[1.2]

