Circuit: * C:\Users\gusta\Dropbox\UFMG\6 Periodo\Lab ELT1\Projetos\PSU_Project\PSU_Schm.asc

Early termination of direct N-R iteration.
Direct Newton iteration failed to find .op point.  (Use ".option noopiter" to skip.)
Starting Gmin stepping
Gmin = 10
vernier = 0.5
vernier = 0.25
vernier = 0.125
Gmin = 5.5165
vernier = 0.0625
vernier = 0.03125
vernier = 0.015625
vernier = 0.0078125
Gmin = 5.49501
vernier = 0.00390625
vernier = 0.00195313
vernier = 0.000976563
vernier = 0.000488281
Gmin = 5.50104
Gmin = 0
Gmin stepping failed

Starting source stepping with srcstepmethod=0
Source Step = 3.0303%
Source Step = 33.3333%
Source Step = 63.6364%
Source Step = 93.9394%
Source stepping succeeded in finding the operating point.

Heightened Def Con from 0.000532592 to 0.000532593
Heightened Def Con from 0.000532593 to 0.000532594
Heightened Def Con from 0.000532604 to 0.000532605
Heightened Def Con from 0.000532611 to 0.000532611
Heightened Def Con from 0.000532614 to 0.000532615
Heightened Def Con from 0.000532619 to 0.00053262
Heightened Def Con from 0.000532622 to 0.000532622
Heightened Def Con from 0.000532628 to 0.000532628
Heightened Def Con from 0.000532629 to 0.00053263
Heightened Def Con from 0.00053263 to 0.00053263
Heightened Def Con from 0.000532631 to 0.000532633
Heightened Def Con from 0.000532633 to 0.000532633
Heightened Def Con from 0.000532639 to 0.000532639
Heightened Def Con from 0.00053265 to 0.00053265
Heightened Def Con from 0.000532654 to 0.000532654
Heightened Def Con from 0.000532655 to 0.000532655
Heightened Def Con from 0.000532655 to 0.000532657
Heightened Def Con from 0.00053266 to 0.00053266
Heightened Def Con from 0.00053266 to 0.00053266
Heightened Def Con from 0.000532663 to 0.000532663
Heightened Def Con from 0.000532663 to 0.000532664
Heightened Def Con from 0.000532667 to 0.000532669
Heightened Def Con from 0.000532669 to 0.000532669
Heightened Def Con from 0.00053267 to 0.000532671
Heightened Def Con from 0.00053268 to 0.00053268
Heightened Def Con from 0.000532687 to 0.000532687
Heightened Def Con from 0.000532694 to 0.000532695
Heightened Def Con from 0.000532699 to 0.000532699
Heightened Def Con from 0.000532701 to 0.000532701
Heightened Def Con from 0.000532701 to 0.000532702
Heightened Def Con from 0.000532702 +to 0.000532702
Heightened Def Con from 0.000532702 to 0.000532702
Heightened Def Con from 0.000532721 to 0.000532721
Heightened Def Con from 0.000532723 to 0.000532724
Heightened Def Con from 0.000532728 to 0.000532729
Heightened Def Con from 0.000532747 to 0.000532749
Heightened Def Con from 0.000532751 to 0.000532753
Heightened Def Con from 0.000532755 to 0.000532755
Heightened Def Con from 0.000532755 to 0.000532755
Heightened Def Con from 0.000532761 to 0.000532761
Heightened Def Con from 0.000532769 to 0.000532769
Heightened Def Con from 0.00053277 to 0.000532771
Heightened Def Con from 0.000532787 to 0.000532788
Heightened Def Con from 0.000532806 to 0.000532806
Heightened Def Con from 0.000532811 to 0.000532813
Heightened Def Con from 0.000532822 to 0.000532824
Heightened Def Con from 0.000532827 to 0.000532827
Heightened Def Con from 0.000532829 to 0.000532829
Heightened Def Con from 0.000532835 to 0.000532835
Heightened Def Con from 0.000532835 to 0.000532835
Heightened Def Con from 0.000532838 to 0.000532838
Heightened Def Con from 0.000532838 to 0.00053284
Heightened Def Con from 0.000532842 to 0.000532842
Heightened Def Con from 0.000532847 to 0.000532847
Heightened Def Con from 0.000532847 to 0.000532847
Heightened Def Con from 0.000532854 to 0.000532855
Heightened Def Con from 0.000532855 to 0.000532855
Heightened Def Con from 0.000532855 to 0.000532855
Heightened Def Con from 0.000532855 to 0.000532855
Heightened Def Con from 0.000532855 to 0.000532857
Heightened Def Con from 0.000532857 to 0.000532857
Heightened Def Con from 0.000532862 to 0.000532863
Heightened Def Con from 0.000532863 to 0.000532863
Heightened Def Con from 0.000532863 to 0.000532863
Heightened Def Con from 0.000532863 to 0.000532863
Heightened Def Con from 0.000532863 to 0.000532863
Heightened Def Con from 0.000532863 to 0.000532864
Heightened Def Con from 0.000532865 to 0.000532865
Heightened Def Con from 0.000532865 to 0.000532865
Heightened Def Con from 0.000532868 to 0.000532868
Heightened Def Con from 0.000532874 to 0.000532876
Heightened Def Con from 0.000532878 to 0.00053288
Heightened Def Con from 0.000532883 to 0.000532883
Heightened Def Con from 0.000532883 to 0.000532884
Heightened Def Con from 0.000532886 to 0.000532886
Heightened Def Con from 0.000532886 to 0.000532886
Heightened Def Con from 0.000532887 to 0.000532887
Heightened Def Con from 0.00053289 to 0.000532892
Heightened Def Con from 0.000532899 to 0.000532899
Heightened Def Con from 0.000532901 to 0.000532901
Heightened Def Con from 0.000532901 to 0.000532901
Heightened Def Con from 0.000532901 to 0.000532901
Heightened Def Con from 0.000532913 to 0.000532914
Heightened Def Con from 0.000532914 to 0.000532915
Heightened Def Con from 0.000532917 to 0.000532918
Heightened Def Con from 0.000532919 to 0.000532919
Heightened Def Con from 0.00053293 +++to 0.00053293
Heightened Def Con from 0.00053293 to 0.000532931
Heightened Def Con from 0.000532936 to 0.000532937
Heightened Def Con from 0.000532942 to 0.000532943
Heightened Def Con from 0.000532946 to 0.000532946
Heightened Def Con from 0.000532946 to 0.000532946
Heightened Def Con from 0.000532946 to 0.000532946
Heightened Def Con from 0.000532946 to 0.000532947
Heightened Def Con from 0.000532949 to 0.00053295
Heightened Def Con from 0.00053295 to 0.00053295
Heightened Def Con from 0.000532952 to 0.000532952
Heightened Def Con from 0.000532954 to 0.000532954
Heightened Def Con from 0.000532956 to 0.000532956
Heightened Def Con from 0.000532959 to 0.00053296
Heightened Def Con from 0.000532965 to 0.000532965
Heightened Def Con from 0.000532965 to 0.000532966
Heightened Def Con from 0.000532967 to 0.000532967
Heightened Def Con from 0.000532967 to 0.000532968
Heightened Def Con from 0.000532968 to 0.00053297
Heightened Def Con from 0.00053297 to 0.00053297
Heightened Def Con from 0.000532974 to 0.000532974
Heightened Def Con from 0.000532975 to 0.000532975
Heightened Def Con from 0.000532975 to 0.000532975
Heightened Def Con from 0.000532986 to 0.000532987
Heightened Def Con from 0.00053299 to 0.00053299
Heightened Def Con from 0.00053299 to 0.000532991
Heightened Def Con from 0.000532992 to 0.000532992
Heightened Def Con from 0.000532993 to 0.000532993
Heightened Def Con from 0.000532993 to 0.000532994
Heightened Def Con from 0.000533001 to 0.000533002
Heightened Def Con from 0.000533003 to 0.000533003
Heightened Def Con from 0.000533003 to 0.000533005
Heightened Def Con from 0.000533009 to 0.000533009
Heightened Def Con from 0.000533017 to 0.000533017
Heightened Def Con from 0.000533022 to 0.000533023
Heightened Def Con from 0.000533024 to 0.000533025
Heightened Def Con from 0.000533026 to 0.000533026
Heightened Def Con from 0.000533026 to 0.000533026
Heightened Def Con from 0.000533026 to 0.000533027
Heightened Def Con from 0.000533027 to 0.000533028
Heightened Def Con from 0.000533028 +to 0.000533029
Heightened Def Con from 0.00053304 to 0.000533041
Heightened Def Con from 0.000533042 to 0.000533042
Heightened Def Con from 0.000533042 to 0.000533044
Heightened Def Con from 0.000533052 to 0.000533052
Heightened Def Con from 0.000533052 to 0.000533052
Heightened Def Con from 0.000533053 to 0.000533054
Heightened Def Con from 0.000533054 to 0.000533056
Heightened Def Con from 0.000533056 to 0.000533058
Heightened Def Con from 0.000533061 to 0.000533062
Heightened Def Con from 0.000533062 to 0.000533062
Heightened Def Con from 0.000533062 to 0.000533062
Heightened Def Con from 0.000533062 to 0.000533062
Heightened Def Con from 0.000533068 to 0.000533069
Heightened Def Con from 0.00053307 to 0.00053307
Heightened Def Con from 0.00053307 to 0.00053307
Heightened Def Con from 0.000533071 to 0.000533071
Heightened Def Con from 0.000533073 to 0.000533074
Heightened Def Con from 0.000533074 to 0.000533074
Heightened Def Con from 0.000533076 to 0.000533077
Heightened Def Con from 0.000533078 to 0.00053308
Heightened Def Con from 0.000533086 to 0.000533088
Heightened Def Con from 0.000533097 to 0.000533099
Heightened Def Con from 0.000533113 to 0.000533114
Heightened Def Con from 0.000533126 to 0.000533128
Heightened Def Con from 0.000533135 to 0.000533136
Heightened Def Con from 0.000533136 to 0.000533136
Heightened Def Con from 0.000533136 to 0.000533136
Heightened Def Con from 0.000533136 ++++++to 0.000533136
Heightened Def Con from 0.000533136 to 0.000533138
Heightened Def Con from 0.000533139 to 0.000533139
Heightened Def Con from 0.000533139 to 0.000533141
Heightened Def Con from 0.000533155 to 0.000533155
Heightened Def Con from 0.000533156 to 0.000533156
Heightened Def Con from 0.000533156 to 0.000533157
Heightened Def Con from 0.00053316 to 0.000533162
Heightened Def Con from 0.000533162 to 0.000533162
Heightened Def Con from 0.000533163 to 0.000533163
Heightened Def Con from 0.000533163 to 0.000533164
Heightened Def Con from 0.000533164 to 0.000533164
Heightened Def Con from 0.000533165 to 0.000533165
Heightened Def Con from 0.000533165 to 0.000533165
Heightened Def Con from 0.000533165 to 0.000533166
Heightened Def Con from 0.000533172 to 0.000533174
Heightened Def Con from 0.000533175 to 0.000533177
Heightened Def Con from 0.000533177 to 0.000533177
Heightened Def Con from 0.000533177 to 0.000533177
Heightened Def Con from 0.000533177 to 0.000533178
Heightened Def Con from 0.000533178 to 0.000533178
Heightened Def Con from 0.000533184 to 0.000533186
Heightened Def Con from 0.000533197 to 0.000533197
Heightened Def Con from 0.000533197 to 0.000533197
Heightened Def Con from 0.000533198 to 0.000533199
Heightened Def Con from 0.000533202 to 0.000533204
Heightened Def Con from 0.000533211 to 0.000533211
Heightened Def Con from 0.000533211 to 0.000533211
Heightened Def Con from 0.000533212 to 0.000533212
Heightened Def Con from 0.000533212 to 0.000533212
Heightened Def Con from 0.000533212 to 0.000533212
Heightened Def Con from 0.000533212 to 0.000533213
Heightened Def Con from 0.000533213 to 0.000533215
Heightened Def Con from 0.000533215 to 0.000533215
Heightened Def Con from 0.000533215 to 0.000533216
Heightened Def Con from 0.000533216 to 0.000533216
Heightened Def Con from 0.000533216 to 0.000533216
Heightened Def Con from 0.000533222 to 0.000533223
Heightened Def Con from 0.000533225 to 0.000533226
Heightened Def Con from 0.000533227 to 0.000533227
Heightened Def Con from 0.000533241 +to 0.000533241
Heightened Def Con from 0.000533241 to 0.000533243
Heightened Def Con from 0.000533244 to 0.000533246
Heightened Def Con from 0.00053325 to 0.000533251
Heightened Def Con from 0.000533252 to 0.000533253
Heightened Def Con from 0.000533253 to 0.000533254
Heightened Def Con from 0.000533255 to 0.000533255
Heightened Def Con from 0.000533255 to 0.000533255
Heightened Def Con from 0.000533255 to 0.000533255
Heightened Def Con from 0.000533255 to 0.000533256
Heightened Def Con from 0.000533256 to 0.000533256
Heightened Def Con from 0.000533256 to 0.000533256
Heightened Def Con from 0.000533257 to 0.000533257
Heightened Def Con from 0.000533258 to 0.000533259
Heightened Def Con from 0.000533261 to 0.000533263
Heightened Def Con from 0.00053327 to 0.000533271
Heightened Def Con from 0.000533284 to 0.000533285
Heightened Def Con from 0.000533285 to 0.000533287
Heightened Def Con from 0.000533288 to 0.000533288
Heightened Def Con from 0.00053329 to 0.00053329
Heightened Def Con from 0.000533316 to 0.000533317
Heightened Def Con from 0.000533321 to 0.000533321
Heightened Def Con from 0.000533326 to 0.000533326
Heightened Def Con from 0.000533326 to 0.000533326
Heightened Def Con from 0.000533326 +to 0.000533327
Heightened Def Con from 0.000533327 to 0.000533328
Heightened Def Con from 0.000533328 to 0.000533329
Heightened Def Con from 0.000533329 to 0.000533329
Heightened Def Con from 0.000533329 to 0.000533331
Heightened Def Con from 0.000533334 to 0.000533334
Heightened Def Con from 0.000533334 to 0.000533334
Heightened Def Con from 0.000533334 to 0.000533334
Heightened Def Con from 0.000533334 to 0.000533334
Heightened Def Con from 0.000533334 to 0.000533334
Heightened Def Con from 0.000533334 to 0.000533336
Heightened Def Con from 0.00053334 to 0.00053334
Heightened Def Con from 0.00053334 to 0.00053334
Heightened Def Con from 0.00053334 to 0.000533341
Heightened Def Con from 0.000533342 to 0.000533342
Heightened Def Con from 0.000533342 to 0.000533343
Heightened Def Con from 0.000533359 to 0.000533359
Heightened Def Con from 0.000533359 to 0.000533361
Heightened Def Con from 0.000533364 to 0.000533364
Heightened Def Con from 0.000533369 to 0.000533369
Heightened Def Con from 0.000533375 to 0.000533375
Heightened Def Con from 0.000533375 to 0.000533376
Heightened Def Con from 0.000533376 to 0.000533376
Heightened Def Con from 0.000533377 to 0.000533377
Heightened Def Con from 0.000533377 to 0.000533377
Heightened Def Con from 0.000533377 to 0.000533378
Heightened Def Con from 0.000533397 to 0.000533398
Heightened Def Con from 0.000533398 to 0.000533399
Heightened Def Con from 0.0005334 to 0.000533401
Heightened Def Con from 0.000533401 to 0.000533401
Heightened Def Con from 0.000533401 to 0.000533403
Heightened Def Con from 0.000533405 to 0.000533405
Heightened Def Con from 0.000533405 to 0.000533405
Heightened Def Con from 0.000533405 to 0.000533407
Heightened Def Con from 0.000533407 to 0.000533408
Heightened Def Con from 0.000533411 to 0.000533412
Heightened Def Con from 0.000533412 to 0.000533412
Heightened Def Con from 0.000533413 to 0.000533413
Heightened Def Con from 0.000533413 to 0.000533413
Heightened Def Con from 0.000533414 to 0.000533415
Heightened Def Con from 0.000533424 to 0.000533425
Heightened Def Con from 0.00053344 to 0.000533442
Heightened Def Con from 0.000533449 to 0.000533449
Heightened Def Con from 0.000533449 to 0.00053345
Heightened Def Con from 0.00053345 to 0.000533452
Heightened Def Con from 0.000533478 to 0.000533479
Heightened Def Con from 0.000533496 to 0.000533497
Heightened Def Con from 0.000533497 to 0.000533497
Heightened Def Con from 0.000533508 to 0.00053351
Heightened Def Con from 0.00053354 to 0.00053354
Heightened Def Con from 0.00053354 to 0.00053354
Heightened Def Con from 0.000533541 to 0.000533541
Heightened Def Con from 0.000533651 to 0.000533653
Heightened Def Con from 0.000533653 to 0.000533655
Heightened Def Con from 0.000533673 to 0.000533674
Heightened Def Con from 0.000533696 to 0.000533698
Heightened Def Con from 0.000533698 to 0.000533698
Heightened Def Con from 0.000533698 to 0.0005337
Heightened Def Con from 0.000533707 to 0.000533709
Heightened Def Con from 0.000533711 to 0.000533711
Heightened Def Con from 0.000533712 +to 0.000533714
Heightened Def Con from 0.000533749 to 0.000533749
Heightened Def Con from 0.000533754 to 0.000533755
Heightened Def Con from 0.000533755 to 0.000533755
Heightened Def Con from 0.000533761 to 0.000533762
Heightened Def Con from 0.000533768 to 0.000533769
Heightened Def Con from 0.000533771 to 0.000533771
Heightened Def Con from 0.000533771 to 0.000533772
Heightened Def Con from 0.000533772 to 0.000533772
Heightened Def Con from 0.000533776 to 0.000533776
Heightened Def Con from 0.000533776 to 0.000533776
Heightened Def Con from 0.000533776 to 0.000533778
Heightened Def Con from 0.00053379 to 0.000533791
Heightened Def Con from 0.000533796 to 0.000533797
Heightened Def Con from 0.000533811 to 0.000533813
Heightened Def Con from 0.000533834 to 0.000533836
Heightened Def Con from 0.000533867 to 0.000533869
Heightened Def Con from 0.000533877 to 0.000533877
Heightened Def Con from 0.000533896 to 0.000533898
Heightened Def Con from 0.000533904 to 0.000533904
Heightened Def Con from 0.000533904 to 0.000533905
Heightened Def Con from 0.000533906 to 0.000533908
Heightened Def Con from 0.000533918 to 0.000533918
Heightened Def Con from 0.000533936 to 0.000533938
Heightened Def Con from 0.000533963 to 0.000533963
Heightened Def Con from 0.000534006 to 0.000534006
Heightened Def Con from 0.000534013 to 0.000534013
Heightened Def Con from 0.000534016 to 0.000534017
Heightened Def Con from 0.000534018 to 0.000534018
Heightened Def Con from 0.000534018 to 0.00053402
Heightened Def Con from 0.000534029 to 0.00053403
Heightened Def Con from 0.000534032 to 0.000534032
Heightened Def Con from 0.000534032 to 0.000534032
Heightened Def Con from 0.000534032 to 0.000534032
Heightened Def Con from 0.000534092 to 0.000534093

Date: Mon Apr 01 20:30:52 2019
Total elapsed time: 16.275 seconds.

tnom = 27
temp = 27
method = modified trap
totiter = 122268
traniter = 120514
tranpoints = 15997
accept = 9590
rejected = 6734
matrix size = 285
fillins = 3740
solver = Normal
Thread vector: 28.4/12.1[6] 8.1/5.3[6] 14.4/5.7[6] 2.6/4.6[1]  2592/500
Matrix Compiler1: 723.47 KB object code size  162.2/79.1/[30.3]
Matrix Compiler2: 88.01 KB object code size  27.6/16.4/[5.7]

